data/projects/mackelroy/hosting_capacity/circuit.dss
clear
new object=circuit.240_node_test_system
edit object=vsource.source bus1=eq_source_bus.1.2.3 phases=3 angle=0.00000 pu=1.00000 basekv=69.00000 r1=4.5426 x1=10.527 r0=7.3655 x0=24.505
new object=linecode.oh_3p_type1 nphases=3 units=mi rmatrix=[0.61592700,0.17092700,0.17092700|0.17092700,0.61592700,0.17092700|0.17092700,0.17092700,0.61592700] xmatrix=[1.20938900,0.43318800,0.43318800|0.43318800,1.20938900,0.43318800|0.43318800,0.43318800,1.20938900]
new object=linecode.oh_2p_type2 nphases=2 units=mi rmatrix=[0.58925500,0.16949500|0.16949500,0.58925500] xmatrix=[1.07485600,0.38787600|0.38787600,1.07485600]
new object=linecode.oh_1p_type2 nphases=1 units=mi rmatrix=[0.59247300] xmatrix=[1.06582100]
new object=linecode.oh_3p_type5 nphases=3 units=mi rmatrix=[1.19160200,0.23484900,0.23484900|0.23484900,1.19160200,0.23484900|0.23484900,0.23484900,1.19160200] xmatrix=[1.20945200,0.48926300,0.48926300|0.48926300,1.20945200,0.48926300|0.48926300,0.48926300,1.20945200]
new object=linecode.oh_1p_type5 nphases=1 units=mi rmatrix=[1.19426000] xmatrix=[1.20542000]
new object=linecode.ug_3p_type1 nphases=3 units=mi rmatrix=[1.00942300,0.40973200,0.40973200|0.40973200,1.00942300,0.40973200|0.40973200,0.40973200,1.00942300] xmatrix=[0.49316400,0.10084900,0.10084900|0.10084900,0.49316400,0.10084900|0.10084900,0.10084900,0.49316400] cmatrix=[286.10159300,0.00000000,0.00000000|0.00000000,286.10159300,0.00000000|0.00000000,0.00000000,286.10159300]
new object=linecode.ug_3p_type2 nphases=3 units=mi rmatrix=[1.69257700,0.55008700,0.55008700|0.55008700,1.69257700,0.55008700|0.55008700,0.55008700,1.69257700] xmatrix=[0.79175600,0.34493100,0.34493100|0.34493100,0.79175600,0.34493100|0.34493100,0.34493100,0.79175600] cmatrix=[207.88053900,0.00000000,0.00000000|0.00000000,207.88053900,0.00000000|0.00000000,0.00000000,207.88053900]
new object=linecode.ug_1p_type2 nphases=1 units=mi rmatrix=[1.67533800] xmatrix=[1.21000700] cmatrix=[207.88053900]
new object=loadshape.default npts=24 interval=1 mult=[0.677,0.6256,0.6087,0.5833,0.58028,0.6025,0.657,0.7477,0.832,0.88,0.94,0.989,0.985,0.98,0.9898,0.999,1,0.958,0.936,0.913,0.876,0.876,0.828,0.756]
new object=growthshape.default npts=2 year=[1,20] mult=[1.025,1.025]
new object=tcc_curve.a npts=5 c_array=[1,2.5,4.5,8,14] t_array=[0.15,0.07,0.05,0.045,0.045]
new object=tcc_curve.d npts=5 c_array=[1,2.5,4.5,8,14] t_array=[6,0.7,0.2,0.06,0.02]
new object=tcc_curve.tlink npts=7 c_array=[2,2.1,3,4,6,22,50] t_array=[300,100,10.1,4,1.4,0.1,0.02]
new object=tcc_curve.klink npts=6 c_array=[2,2.2,3,4,6,30] t_array=[300,20,4,1.3,0.41,0.02]
new object=tcc_curve.uv1547 npts=2 c_array=[0.5,0.9] t_array=[0.166,2]
new object=tcc_curve.ov1547 npts=2 c_array=[1.1,1.2] t_array=[2,0.166]
new object=tcc_curve.mod_inv npts=15 c_array=[1.1,1.3,1.5,2,3,4,5,6,7,8,9,10,20,50,100] t_array=[27.1053,9.9029,6.439,3.8032,2.4322,1.9458,1.6883,1.5255,1.4117,1.3267,1.2604,1.2068,0.9481,0.7468,0.6478]
new object=tcc_curve.very_inv npts=15 c_array=[1.1,1.3,1.5,2,3,4,5,6,7,8,9,10,20,50,100] t_array=[93.872,28.9113,16.179,7.0277,2.9423,1.7983,1.3081,1.0513,0.8995,0.8023,0.7361,0.6891,0.5401,0.4988,0.493]
new object=tcc_curve.ext_inv npts=15 c_array=[1.1,1.3,1.5,2,3,4,5,6,7,8,9,10,20,50,100] t_array=[134.407,40.9913,22.6817,9.5217,3.6467,2.0017,1.2967,0.9274,0.7092,0.5693,0.4742,0.4065,0.1924,0.133,0.1245]
new object=tcc_curve.definite npts=3 c_array=[1,1.001,100] t_array=[300,1,1]
new object=spectrum.default numharm=7 harmonic=[1,3,5,7,9,11,13] %mag=[100,33,20,14,11,9,7] angle=[0,0,0,0,0,0,0]
new object=spectrum.defaultload numharm=7 harmonic=[1,3,5,7,9,11,13] %mag=[100,1.5,20,14,1,9,7] angle=[0,180,180,180,180,180,180]
new object=spectrum.defaultgen numharm=7 harmonic=[1,3,5,7,9,11,13] %mag=[100,5,3,1.5,1,0.7,0.5] angle=[0,0,0,0,0,0,0]
new object=spectrum.defaultvsource numharm=1 harmonic=[1] %mag=[100] angle=[0]
new object=spectrum.linear numharm=1 harmonic=[1] %mag=[100] angle=[0]
new object=spectrum.pwm6 numharm=13 harmonic=[1,3,5,7,9,11,13,15,17,19,21,23,25] %mag=[100,4.4,76.5,62.7,2.9,24.8,12.7,0.5,7.1,8.4,0.9,4.4,3.3] angle=[-103,-5,28,-180,-33,-59,79,36,-253,-124,3,-30,86]
new object=spectrum.dc6 numharm=10 harmonic=[1,3,5,7,9,11,13,15,17,19] %mag=[100,1.2,33.6,1.6,0.4,8.7,1.2,0.3,4.5,1.3] angle=[-75,28,156,29,-91,49,54,148,-57,-46]
new object=line.l_1001_1002 bus1=bus1001.1.2.3 bus2=bus1002.1.2.3 phases=3 length=2967 units=ft linecode=ug_3p_type1 normamps=400 emergamps=600
new object=line.l_1002_1003 bus1=bus1002.1.2.3 bus2=bus1003.1.2.3 phases=3 length=372 units=ft linecode=ug_3p_type2 normamps=400 emergamps=600
new object=line.l_1002_1004 bus1=bus1002.1.2.3 bus2=bus1004.1.2.3 phases=3 length=638 units=ft linecode=oh_3p_type1 normamps=400 emergamps=600
new object=line.l_1004_1005 bus1=bus1004.1.2.3 bus2=bus1005.1.2.3 phases=3 length=394 units=ft linecode=oh_3p_type1 normamps=400 emergamps=600
new object=line.l_1005_1006 bus1=bus1005.1.2.3 bus2=bus1006.1.2.3 phases=3 length=1049 units=ft linecode=oh_3p_type1 normamps=400 emergamps=600
new object=line.l_1006_1007 bus1=bus1006.1.2 bus2=bus1007.1.2 phases=2 length=2000 units=ft linecode=oh_2p_type2 normamps=400 emergamps=600
new object=line.l_1006_1008 bus1=bus1006.1.2.3 bus2=bus1008.1.2.3 phases=3 length=454 units=ft linecode=oh_3p_type1 normamps=400 emergamps=600
new object=line.l_1008_1009 bus1=bus1008.1.2.3 bus2=bus1009.1.2.3 phases=3 length=1082 units=ft linecode=oh_3p_type1 normamps=400 emergamps=600
new object=line.l_1009_1010 bus1=bus1009.1.2.3 bus2=bus1010.1.2.3 phases=3 length=169 units=ft linecode=oh_3p_type1 normamps=400 emergamps=600
new object=line.l_1009_1011 bus1=bus1009.1.2.3 bus2=bus1011.1.2.3 phases=3 length=60 units=ft linecode=ug_3p_type2 normamps=400 emergamps=600
new object=line.l_1011_1012 bus1=bus1011.1.2.3 bus2=bus1012.1.2.3 phases=3 length=60 units=ft linecode=ug_3p_type2 normamps=400 emergamps=600
new object=line.l_1012_1013 bus1=bus1012.1.2.3 bus2=bus1013.1.2.3 phases=3 length=306 units=ft linecode=ug_3p_type2 normamps=400 emergamps=600
new object=line.l_1013_1014 bus1=bus1013.2.0 bus2=bus1014.2.0 phases=1 length=208 units=ft linecode=ug_1p_type2 normamps=400 emergamps=600
new object=line.l_1014_1015 bus1=bus1014.2.0 bus2=bus1015.2.0 phases=1 length=126 units=ft linecode=ug_1p_type2 normamps=400 emergamps=600
new object=line.l_1013_1016 bus1=bus1013.3.0 bus2=bus1016.3.0 phases=1 length=468 units=ft linecode=ug_1p_type2 normamps=400 emergamps=600
new object=line.l_1016_1017 bus1=bus1016.3.0 bus2=bus1017.3.0 phases=1 length=71 units=ft linecode=ug_1p_type2 normamps=400 emergamps=600
new object=line.l_2001_2002 bus1=bus2001.1.2.3 bus2=bus2002.1.2.3 phases=3 length=1388 units=ft linecode=ug_3p_type1 normamps=400 emergamps=600
new object=line.l_2002_2003 bus1=bus2002.1.2.3 bus2=bus2003.1.2.3 phases=3 length=1281 units=ft linecode=oh_3p_type1 normamps=400 emergamps=600
new object=line.l_2003_2004 bus1=bus2003.1.2.3 bus2=bus2004.1.2.3 phases=3 length=798 units=ft linecode=oh_3p_type1 normamps=400 emergamps=600
new object=line.l_2004_2005 bus1=bus2004.1.2.3 bus2=bus2005.1.2.3 phases=3 length=317 units=ft linecode=oh_3p_type1 normamps=400 emergamps=600
new object=line.l_2005_2006 bus1=bus2005.1.2.3 bus2=bus2006.1.2.3 phases=3 length=145 units=ft linecode=oh_3p_type1 normamps=400 emergamps=600
new object=line.l_2006_2007 bus1=bus2006.1 bus2=bus2007.1 phases=1 length=245 units=ft linecode=oh_1p_type5 normamps=400 emergamps=600
new object=line.l_2007_2008 bus1=bus2007.1 bus2=bus2008.1 phases=1 length=125 units=ft linecode=ug_1p_type2 normamps=400 emergamps=600
new object=line.l_2007_2009 bus1=bus2007.1 bus2=bus2009.1 phases=1 length=161 units=ft linecode=oh_1p_type2 normamps=400 emergamps=600
new object=line.l_2006_2010 bus1=bus2006.1.2.3 bus2=bus2010.1.2.3 phases=3 length=170 units=ft linecode=oh_3p_type1 normamps=400 emergamps=600
new object=line.l_2010_2011 bus1=bus2010.1.2.3 bus2=bus2011.1.2.3 phases=3 length=275 units=ft linecode=oh_3p_type1 normamps=400 emergamps=600
new object=line.l_2011_2012 bus1=bus2011.1.2.3 bus2=bus2012.1.2.3 phases=3 length=503 units=ft linecode=oh_3p_type1 normamps=400 emergamps=600
new object=line.l_2013_2014 bus1=bus2013.1.2.3 bus2=bus2014.1.2.3 phases=3 length=268 units=ft linecode=oh_3p_type1 normamps=400 emergamps=600
new object=line.l_2014_2015 bus1=bus2014.2 bus2=bus2015.2 phases=1 length=120 units=ft linecode=ug_1p_type2 normamps=400 emergamps=600
new object=line.l_2014_2016 bus1=bus2014.1.2.3 bus2=bus2016.1.2.3 phases=3 length=257 units=ft linecode=oh_3p_type1 normamps=400 emergamps=600
new object=line.l_2016_2017 bus1=bus2016.1.2.3 bus2=bus2017.1.2.3 phases=3 length=174 units=ft linecode=ug_3p_type2 normamps=400 emergamps=600
new object=line.l_2017_2018 bus1=bus2017.1.2.3 bus2=bus2018.1.2.3 phases=3 length=447 units=ft linecode=ug_3p_type2 normamps=400 emergamps=600
new object=line.l_2013_2019 bus1=bus2013.1.2.3 bus2=bus2019.1.2.3 phases=3 length=45 units=ft linecode=oh_3p_type1 normamps=400 emergamps=600
new object=line.l_2019_2020 bus1=bus2019.2 bus2=bus2020.2 phases=1 length=642 units=ft linecode=ug_1p_type2 normamps=400 emergamps=600
new object=line.l_2019_2021 bus1=bus2019.1.2.3 bus2=bus2021.1.2.3 phases=3 length=43 units=ft linecode=oh_3p_type1 normamps=400 emergamps=600
new object=line.l_2021_2022 bus1=bus2021.3 bus2=bus2022.3 phases=1 length=205 units=ft linecode=ug_1p_type2 normamps=400 emergamps=600
new object=line.l_2022_2023 bus1=bus2022.3 bus2=bus2023.3 phases=1 length=150 units=ft linecode=ug_1p_type2 normamps=400 emergamps=600
new object=line.l_2023_2024 bus1=bus2023.3 bus2=bus2024.3 phases=1 length=408 units=ft linecode=ug_1p_type2 normamps=400 emergamps=600
new object=line.l_2024_2025 bus1=bus2024.3 bus2=bus2025.3 phases=1 length=331 units=ft linecode=ug_1p_type2 normamps=400 emergamps=600
new object=line.l_2026_2027 bus1=bus2026.1.2.3 bus2=bus2027.1.2.3 phases=3 length=369 units=ft linecode=oh_3p_type1 normamps=400 emergamps=600
new object=line.l_2027_2028 bus1=bus2027.1.2.3 bus2=bus2028.1.2.3 phases=3 length=285 units=ft linecode=ug_3p_type2 normamps=400 emergamps=600
new object=line.l_2028_2029 bus1=bus2028.1.2.3 bus2=bus2029.1.2.3 phases=3 length=131 units=ft linecode=ug_3p_type2 normamps=400 emergamps=600
new object=line.l_2029_2030 bus1=bus2029.1.2.3 bus2=bus2030.1.2.3 phases=3 length=165 units=ft linecode=ug_3p_type2 normamps=400 emergamps=600
new object=line.l_2030_2031 bus1=bus2030.1.2.3 bus2=bus2031.1.2.3 phases=3 length=245 units=ft linecode=ug_3p_type2 normamps=400 emergamps=600
new object=line.l_2027_2032 bus1=bus2027.1.2.3 bus2=bus2032.1.2.3 phases=3 length=149 units=ft linecode=oh_3p_type1 normamps=400 emergamps=600
new object=line.l_2032_2033 bus1=bus2032.1.2.3 bus2=bus2033.1.2.3 phases=3 length=289 units=ft linecode=oh_3p_type1 normamps=400 emergamps=600
new object=line.l_2033_2034 bus1=bus2033.1.2.3 bus2=bus2034.1.2.3 phases=3 length=185 units=ft linecode=oh_3p_type5 normamps=400 emergamps=600
new object=line.l_2033_2035 bus1=bus2033.1.2.3 bus2=bus2035.1.2.3 phases=3 length=160 units=ft linecode=oh_3p_type1 normamps=400 emergamps=600
new object=line.l_2035_2036 bus1=bus2035.1.2.3 bus2=bus2036.1.2.3 phases=3 length=160 units=ft linecode=oh_3p_type1 normamps=400 emergamps=600
new object=line.l_2036_2037 bus1=bus2036.1.2.3 bus2=bus2037.1.2.3 phases=3 length=80 units=ft linecode=oh_3p_type1 normamps=400 emergamps=600
new object=line.l_2037_2038 bus1=bus2037.1.2.3 bus2=bus2038.1.2.3 phases=3 length=192 units=ft linecode=oh_3p_type1 normamps=400 emergamps=600
new object=line.l_2038_2039 bus1=bus2038.1.2.3 bus2=bus2039.1.2.3 phases=3 length=800 units=ft linecode=oh_3p_type1 normamps=400 emergamps=600
new object=line.l_2039_2040 bus1=bus2039.1.2.3 bus2=bus2040.1.2.3 phases=3 length=309 units=ft linecode=oh_3p_type1 normamps=400 emergamps=600
new object=line.l_2040_2041 bus1=bus2040.1.2.3 bus2=bus2041.1.2.3 phases=3 length=383 units=ft linecode=oh_3p_type1 normamps=400 emergamps=600
new object=line.l_2039_2042 bus1=bus2039.1.2.3 bus2=bus2042.1.2.3 phases=3 length=35 units=ft linecode=ug_3p_type2 normamps=400 emergamps=600
new object=line.l_2042_2043 bus1=bus2042.1.2.3 bus2=bus2043.1.2.3 phases=3 length=158 units=ft linecode=ug_3p_type2 normamps=400 emergamps=600
new object=line.l_2043_2044 bus1=bus2043.1.2.3 bus2=bus2044.1.2.3 phases=3 length=342 units=ft linecode=ug_3p_type2 normamps=400 emergamps=600
new object=line.l_2044_2045 bus1=bus2044.2 bus2=bus2045.2 phases=1 length=323 units=ft linecode=ug_1p_type2 normamps=400 emergamps=600
new object=line.l_2045_2046 bus1=bus2045.2 bus2=bus2046.2 phases=1 length=330 units=ft linecode=ug_1p_type2 normamps=400 emergamps=600
new object=line.l_2045_2047 bus1=bus2045.2 bus2=bus2047.2 phases=1 length=189 units=ft linecode=ug_1p_type2 normamps=400 emergamps=600
new object=line.l_2047_2048 bus1=bus2047.2 bus2=bus2048.2 phases=1 length=259 units=ft linecode=ug_1p_type2 normamps=400 emergamps=600
new object=line.l_2044_2049 bus1=bus2044.1.2.3 bus2=bus2049.1.2.3 phases=3 length=130 units=ft linecode=ug_3p_type2 normamps=400 emergamps=600
new object=line.l_2049_2050 bus1=bus2049.1.2.3 bus2=bus2050.1.2.3 phases=3 length=124 units=ft linecode=ug_3p_type2 normamps=400 emergamps=600
new object=line.l_2050_2051 bus1=bus2050.1.2.3 bus2=bus2051.1.2.3 phases=3 length=139 units=ft linecode=ug_3p_type2 normamps=400 emergamps=600
new object=line.l_2051_2052 bus1=bus2051.1.2.3 bus2=bus2052.1.2.3 phases=3 length=134 units=ft linecode=ug_3p_type2 normamps=400 emergamps=600
new object=line.l_2044_2053 bus1=bus2044.1.2.3 bus2=bus2053.1.2.3 phases=3 length=464 units=ft linecode=ug_3p_type2 normamps=400 emergamps=600
new object=line.l_2053_2054 bus1=bus2053.1.2.3 bus2=bus2054.1.2.3 phases=3 length=139 units=ft linecode=ug_3p_type2 normamps=400 emergamps=600
new object=line.l_2054_2055 bus1=bus2054.1.2.3 bus2=bus2055.1.2.3 phases=3 length=156 units=ft linecode=ug_3p_type2 normamps=400 emergamps=600
new object=line.l_2055_2056 bus1=bus2055.1.2.3 bus2=bus2056.1.2.3 phases=3 length=204 units=ft linecode=ug_3p_type2 normamps=400 emergamps=600
new object=line.l_2053_2057 bus1=bus2053.1.2.3 bus2=bus2057.1.2.3 phases=3 length=761 units=ft linecode=ug_3p_type2 normamps=400 emergamps=600
new object=line.l_2057_2058 bus1=bus2057.1.2.3 bus2=bus2058.1.2.3 phases=3 length=407 units=ft linecode=ug_3p_type2 normamps=400 emergamps=600
new object=line.l_2057_2059 bus1=bus2057.1.2.3 bus2=bus2059.1.2.3 phases=3 length=685 units=ft linecode=ug_3p_type2 normamps=400 emergamps=600
new object=line.l_2059_2060 bus1=bus2059.1.2.3 bus2=bus2060.1.2.3 phases=3 length=304 units=ft linecode=ug_3p_type2 normamps=400 emergamps=600
new object=line.l_3001_3003 bus1=bus3001.1.2.3 bus2=bus3003.1.2.3 phases=3 length=2307 units=ft linecode=ug_3p_type1 normamps=400 emergamps=600
new object=line.l_3003_3002 bus1=bus3003.1.2.3 bus2=bus3002.1.2.3 phases=3 length=85 units=ft linecode=ug_3p_type2 normamps=400 emergamps=600
new object=line.l_3003_3004 bus1=bus3003.1.2.3 bus2=bus3004.1.2.3 phases=3 length=81 units=ft linecode=ug_3p_type2 normamps=400 emergamps=600
new object=line.l_3003_3005 bus1=bus3003.1.2.3 bus2=bus3005.1.2.3 phases=3 length=1997 units=ft linecode=ug_3p_type1 normamps=400 emergamps=600
new object=line.l_3005_3006 bus1=bus3005.1.2.3 bus2=bus3006.1.2.3 phases=3 length=311 units=ft linecode=oh_3p_type1 normamps=400 emergamps=600
new object=line.l_3006_3007 bus1=bus3006.1.2.3 bus2=bus3007.1.2.3 phases=3 length=370 units=ft linecode=oh_3p_type1 normamps=400 emergamps=600
new object=line.l_3005_3008 bus1=bus3005.1.2.3 bus2=bus3008.1.2.3 phases=3 length=136 units=ft linecode=oh_3p_type1 normamps=400 emergamps=600
new object=line.l_3008_3009 bus1=bus3008.1 bus2=bus3009.1 phases=1 length=161 units=ft linecode=oh_1p_type5 normamps=400 emergamps=600
new object=line.l_3009_3010 bus1=bus3009.1 bus2=bus3010.1 phases=1 length=347 units=ft linecode=oh_1p_type5 normamps=400 emergamps=600
new object=line.l_3010_3011 bus1=bus3010.1 bus2=bus3011.1 phases=1 length=265 units=ft linecode=oh_1p_type5 normamps=400 emergamps=600
new object=line.l_3011_3012 bus1=bus3011.1 bus2=bus3012.1 phases=1 length=312 units=ft linecode=oh_1p_type5 normamps=400 emergamps=600
new object=line.l_3008_3013 bus1=bus3008.2 bus2=bus3013.2 phases=1 length=170 units=ft linecode=oh_1p_type5 normamps=400 emergamps=600
new object=line.l_3013_3014 bus1=bus3013.2 bus2=bus3014.2 phases=1 length=295 units=ft linecode=oh_1p_type5 normamps=400 emergamps=600
new object=line.l_3008_3015 bus1=bus3008.1.2.3 bus2=bus3015.1.2.3 phases=3 length=322 units=ft linecode=oh_3p_type1 normamps=400 emergamps=600
new object=line.l_3015_3016 bus1=bus3015.2 bus2=bus3016.2 phases=1 length=210 units=ft linecode=oh_1p_type5 normamps=400 emergamps=600
new object=line.l_3016_3017 bus1=bus3016.2 bus2=bus3017.2 phases=1 length=259 units=ft linecode=oh_1p_type5 normamps=400 emergamps=600
new object=line.l_3015_3018 bus1=bus3015.3 bus2=bus3018.3 phases=1 length=181 units=ft linecode=oh_1p_type5 normamps=400 emergamps=600
new object=line.l_3018_3019 bus1=bus3018.3 bus2=bus3019.3 phases=1 length=281 units=ft linecode=oh_1p_type5 normamps=400 emergamps=600
new object=line.l_3019_3020 bus1=bus3019.3 bus2=bus3020.3 phases=1 length=307 units=ft linecode=oh_1p_type5 normamps=400 emergamps=600
new object=line.l_3020_3021 bus1=bus3020.3 bus2=bus3021.3 phases=1 length=303 units=ft linecode=oh_1p_type5 normamps=400 emergamps=600
new object=line.l_3015_3022 bus1=bus3015.1.2.3 bus2=bus3022.1.2.3 phases=3 length=289 units=ft linecode=oh_3p_type1 normamps=400 emergamps=600
new object=line.l_3022_3023 bus1=bus3022.1 bus2=bus3023.1 phases=1 length=181 units=ft linecode=oh_1p_type5 normamps=400 emergamps=600
new object=line.l_3023_3024 bus1=bus3023.1 bus2=bus3024.1 phases=1 length=320 units=ft linecode=oh_1p_type5 normamps=400 emergamps=600
new object=line.l_3024_3025 bus1=bus3024.1 bus2=bus3025.1 phases=1 length=331 units=ft linecode=oh_1p_type5 normamps=400 emergamps=600
new object=line.l_3022_3026 bus1=bus3022.1 bus2=bus3026.1 phases=1 length=164 units=ft linecode=oh_1p_type5 normamps=400 emergamps=600
new object=line.l_3026_3027 bus1=bus3026.1 bus2=bus3027.1 phases=1 length=368 units=ft linecode=oh_1p_type5 normamps=400 emergamps=600
new object=line.l_3027_3028 bus1=bus3027.1 bus2=bus3028.1 phases=1 length=241 units=ft linecode=oh_1p_type5 normamps=400 emergamps=600
new object=line.l_3028_3029 bus1=bus3028.1 bus2=bus3029.1 phases=1 length=317 units=ft linecode=oh_1p_type5 normamps=400 emergamps=600
new object=line.l_3022_3030 bus1=bus3022.1.2.3 bus2=bus3030.1.2.3 phases=3 length=304 units=ft linecode=oh_3p_type1 normamps=400 emergamps=600
new object=line.l_3030_3035 bus1=bus3030.1.2.3 bus2=bus3035.1.2.3 phases=3 length=103 units=ft linecode=oh_3p_type1 normamps=400 emergamps=600
new object=line.l_3035_3036 bus1=bus3035.1.2.3 bus2=bus3036.1.2.3 phases=3 length=271 units=ft linecode=oh_3p_type1 normamps=400 emergamps=600
new object=line.l_3036_3037 bus1=bus3036.1.2.3 bus2=bus3037.1.2.3 phases=3 length=136 units=ft linecode=oh_3p_type1 normamps=400 emergamps=600
new object=line.l_3037_3038 bus1=bus3037.1.2.3 bus2=bus3038.1.2.3 phases=3 length=252 units=ft linecode=oh_3p_type1 normamps=400 emergamps=600
new object=line.l_3038_3039 bus1=bus3038.1.2.3 bus2=bus3039.1.2.3 phases=3 length=235 units=ft linecode=oh_3p_type1 normamps=400 emergamps=600
new object=line.l_3039_3053 bus1=bus3039.1.2.3 bus2=bus3053.1.2.3 phases=3 length=263 units=ft linecode=oh_3p_type1 normamps=400 emergamps=600
new object=line.l_3053_3054 bus1=bus3053.1.2.3 bus2=bus3054.1.2.3 phases=3 length=280 units=ft linecode=ug_3p_type2 normamps=400 emergamps=600
new object=line.l_3053_3055 bus1=bus3053.2 bus2=bus3055.2 phases=1 length=1335 units=ft linecode=ug_1p_type2 normamps=400 emergamps=600
new object=line.l_3055_3056 bus1=bus3055.2 bus2=bus3056.2 phases=1 length=128 units=ft linecode=ug_1p_type2 normamps=400 emergamps=600
new object=line.l_3056_3057 bus1=bus3056.2 bus2=bus3057.2 phases=1 length=178 units=ft linecode=ug_1p_type2 normamps=400 emergamps=600
new object=line.l_3057_3058 bus1=bus3057.2 bus2=bus3058.2 phases=1 length=178 units=ft linecode=ug_1p_type2 normamps=400 emergamps=600
new object=line.l_3058_3059 bus1=bus3058.2 bus2=bus3059.2 phases=1 length=274 units=ft linecode=ug_1p_type2 normamps=400 emergamps=600
new object=line.l_3059_3060 bus1=bus3059.2 bus2=bus3060.2 phases=1 length=77 units=ft linecode=ug_1p_type2 normamps=400 emergamps=600
new object=line.l_3060_3061 bus1=bus3060.2 bus2=bus3061.2 phases=1 length=184 units=ft linecode=ug_1p_type2 normamps=400 emergamps=600
new object=line.l_3055_3062 bus1=bus3055.2 bus2=bus3062.2 phases=1 length=443 units=ft linecode=ug_1p_type2 normamps=400 emergamps=600
new object=line.l_3062_3063 bus1=bus3062.2 bus2=bus3063.2 phases=1 length=198 units=ft linecode=ug_1p_type2 normamps=400 emergamps=600
new object=line.l_3063_3064 bus1=bus3063.2 bus2=bus3064.2 phases=1 length=157 units=ft linecode=ug_1p_type2 normamps=400 emergamps=600
new object=line.l_3064_3065 bus1=bus3064.2 bus2=bus3065.2 phases=1 length=205 units=ft linecode=ug_1p_type2 normamps=400 emergamps=600
new object=line.l_3065_3066 bus1=bus3065.2 bus2=bus3066.2 phases=1 length=123 units=ft linecode=ug_1p_type2 normamps=400 emergamps=600
new object=line.l_3066_3067 bus1=bus3066.2 bus2=bus3067.2 phases=1 length=274 units=ft linecode=ug_1p_type2 normamps=400 emergamps=600
new object=line.l_3030_3040 bus1=bus3030.1.2.3 bus2=bus3040.1.2.3 phases=3 length=332 units=ft linecode=oh_3p_type1 normamps=400 emergamps=600
new object=line.l_3040_3044 bus1=bus3040.3 bus2=bus3044.3 phases=1 length=144 units=ft linecode=oh_1p_type5 normamps=400 emergamps=600
new object=line.l_3044_3045 bus1=bus3044.3 bus2=bus3045.3 phases=1 length=393 units=ft linecode=oh_1p_type5 normamps=400 emergamps=600
new object=line.l_3040_3041 bus1=bus3040.3 bus2=bus3041.3 phases=1 length=121 units=ft linecode=oh_1p_type5 normamps=400 emergamps=600
new object=line.l_3041_3042 bus1=bus3041.3 bus2=bus3042.3 phases=1 length=328 units=ft linecode=oh_1p_type5 normamps=400 emergamps=600
new object=line.l_3042_3043 bus1=bus3042.3 bus2=bus3043.3 phases=1 length=418 units=ft linecode=oh_1p_type5 normamps=400 emergamps=600
new object=line.l_3040_3046 bus1=bus3040.1.2.3 bus2=bus3046.1.2.3 phases=3 length=329 units=ft linecode=oh_3p_type1 normamps=400 emergamps=600
new object=line.l_3046_3047 bus1=bus3046.1.2.3 bus2=bus3047.1.2.3 phases=3 length=219 units=ft linecode=oh_3p_type1 normamps=400 emergamps=600
new object=line.l_3046_3048 bus1=bus3046.1.2.3 bus2=bus3048.1.2.3 phases=3 length=130 units=ft linecode=oh_3p_type1 normamps=400 emergamps=600
new object=line.l_3048_3049 bus1=bus3048.1.2.3 bus2=bus3049.1.2.3 phases=3 length=226 units=ft linecode=oh_3p_type1 normamps=400 emergamps=600
new object=line.l_3049_3050 bus1=bus3049.1.2.3 bus2=bus3050.1.2.3 phases=3 length=167 units=ft linecode=oh_3p_type1 normamps=400 emergamps=600
new object=line.l_3050_3051 bus1=bus3050.1.2.3 bus2=bus3051.1.2.3 phases=3 length=360 units=ft linecode=oh_3p_type1 normamps=400 emergamps=600
new object=line.l_3051_3052 bus1=bus3051.1.2.3 bus2=bus3052.1.2.3 phases=3 length=292 units=ft linecode=oh_3p_type1 normamps=400 emergamps=600
new object=line.l_3030_3031 bus1=bus3030.1.2.3 bus2=bus3031.1.2.3 phases=3 length=243 units=ft linecode=oh_3p_type1 normamps=400 emergamps=600
new object=line.l_3031_3032 bus1=bus3031.1.2.3 bus2=bus3032.1.2.3 phases=3 length=251 units=ft linecode=oh_3p_type1 normamps=400 emergamps=600
new object=line.l_3032_3033 bus1=bus3032.1.2.3 bus2=bus3033.1.2.3 phases=3 length=388 units=ft linecode=oh_3p_type1 normamps=400 emergamps=600
new object=line.l_3033_3034 bus1=bus3033.1.2.3 bus2=bus3034.1.2.3 phases=3 length=257 units=ft linecode=oh_3p_type1 normamps=400 emergamps=600
new object=line.l_3034_3068 bus1=bus3034.1.2.3 bus2=bus3068.1.2.3 phases=3 length=164 units=ft linecode=oh_3p_type1 normamps=400 emergamps=600
new object=line.l_3068_3069 bus1=bus3068.1.2.3 bus2=bus3069.1.2.3 phases=3 length=329 units=ft linecode=oh_3p_type1 normamps=400 emergamps=600
new object=line.l_3069_3070 bus1=bus3069.1.2.3 bus2=bus3070.1.2.3 phases=3 length=107 units=ft linecode=ug_3p_type2 normamps=400 emergamps=600
new object=line.l_3070_3071 bus1=bus3070.1.2.3 bus2=bus3071.1.2.3 phases=3 length=141 units=ft linecode=ug_3p_type2 normamps=400 emergamps=600
new object=line.l_3071_3072 bus1=bus3071.1.2.3 bus2=bus3072.1.2.3 phases=3 length=90 units=ft linecode=ug_3p_type2 normamps=400 emergamps=600
new object=line.l_3069_3073 bus1=bus3069.1.2.3 bus2=bus3073.1.2.3 phases=3 length=20 units=ft linecode=oh_3p_type1 normamps=400 emergamps=600
new object=line.l_3073_3074 bus1=bus3073.1.2.3 bus2=bus3074.1.2.3 phases=3 length=340 units=ft linecode=oh_3p_type1 normamps=400 emergamps=600
new object=line.l_3068_3075 bus1=bus3068.1.2.3 bus2=bus3075.1.2.3 phases=3 length=188 units=ft linecode=oh_3p_type1 normamps=400 emergamps=600
new object=line.l_3076_3077 bus1=bus3076.1.2.3 bus2=bus3077.1.2.3 phases=3 length=877 units=ft linecode=oh_3p_type1 normamps=400 emergamps=600
new object=line.l_3077_3078 bus1=bus3077.1.2.3 bus2=bus3078.1.2.3 phases=3 length=80 units=ft linecode=oh_3p_type1 normamps=400 emergamps=600
new object=line.l_3076_3079 bus1=bus3076.1.2.3 bus2=bus3079.1.2.3 phases=3 length=191 units=ft linecode=oh_3p_type1 normamps=400 emergamps=600
new object=line.l_3079_3080 bus1=bus3079.1.2.3 bus2=bus3080.1.2.3 phases=3 length=604 units=ft linecode=oh_3p_type1 normamps=400 emergamps=600
new object=line.l_3080_3081 bus1=bus3080.1.2.3 bus2=bus3081.1.2.3 phases=3 length=195 units=ft linecode=oh_3p_type1 normamps=400 emergamps=600
new object=line.l_3080_3082 bus1=bus3080.1.2.3 bus2=bus3082.1.2.3 phases=3 length=540 units=ft linecode=oh_3p_type1 normamps=400 emergamps=600
new object=line.l_3082_3083 bus1=bus3082.1 bus2=bus3083.1 phases=1 length=125 units=ft linecode=ug_1p_type2 normamps=400 emergamps=600
new object=line.l_3083_3084 bus1=bus3083.1 bus2=bus3084.1 phases=1 length=196 units=ft linecode=ug_1p_type2 normamps=400 emergamps=600
new object=line.l_3084_3085 bus1=bus3084.1 bus2=bus3085.1 phases=1 length=515 units=ft linecode=ug_1p_type2 normamps=400 emergamps=600
new object=line.l_3085_3086 bus1=bus3085.1 bus2=bus3086.1 phases=1 length=338 units=ft linecode=ug_1p_type2 normamps=400 emergamps=600
new object=line.l_3086_3087 bus1=bus3086.1 bus2=bus3087.1 phases=1 length=239 units=ft linecode=ug_1p_type2 normamps=400 emergamps=600
new object=line.l_3087_3088 bus1=bus3087.1 bus2=bus3088.1 phases=1 length=420 units=ft linecode=ug_1p_type2 normamps=400 emergamps=600
new object=line.l_3088_3089 bus1=bus3088.1 bus2=bus3089.1 phases=1 length=112 units=ft linecode=ug_1p_type2 normamps=400 emergamps=600
new object=line.l_3089_3090 bus1=bus3089.1 bus2=bus3090.1 phases=1 length=565 units=ft linecode=ug_1p_type2 normamps=400 emergamps=600
new object=line.l_3090_3091 bus1=bus3090.1 bus2=bus3091.1 phases=1 length=222 units=ft linecode=ug_1p_type2 normamps=400 emergamps=600
new object=line.l_3082_3092 bus1=bus3082.1.2.3 bus2=bus3092.1.2.3 phases=3 length=185 units=ft linecode=ug_3p_type2 normamps=400 emergamps=600
new object=line.l_3092_3093 bus1=bus3092.1 bus2=bus3093.1 phases=1 length=230 units=ft linecode=ug_1p_type2 normamps=400 emergamps=600
new object=line.l_3093_3094 bus1=bus3093.1 bus2=bus3094.1 phases=1 length=125 units=ft linecode=ug_1p_type2 normamps=400 emergamps=600
new object=line.l_3094_3095 bus1=bus3094.1 bus2=bus3095.1 phases=1 length=65 units=ft linecode=ug_1p_type2 normamps=400 emergamps=600
new object=line.l_3095_3096 bus1=bus3095.1 bus2=bus3096.1 phases=1 length=296 units=ft linecode=ug_1p_type2 normamps=400 emergamps=600
new object=line.l_3096_3097 bus1=bus3096.1 bus2=bus3097.1 phases=1 length=117 units=ft linecode=ug_1p_type2 normamps=400 emergamps=600
new object=line.l_3092_3098 bus1=bus3092.2 bus2=bus3098.2 phases=1 length=284 units=ft linecode=ug_1p_type2 normamps=400 emergamps=600
new object=line.l_3098_3099 bus1=bus3098.2 bus2=bus3099.2 phases=1 length=368 units=ft linecode=ug_1p_type2 normamps=400 emergamps=600
new object=line.l_3092_3100 bus1=bus3092.1.2.3 bus2=bus3100.1.2.3 phases=3 length=91 units=ft linecode=ug_3p_type2 normamps=400 emergamps=600
new object=line.l_3100_3101 bus1=bus3100.3 bus2=bus3101.3 phases=1 length=157 units=ft linecode=ug_1p_type2 normamps=400 emergamps=600
new object=line.l_3101_3102 bus1=bus3101.3 bus2=bus3102.3 phases=1 length=225 units=ft linecode=ug_1p_type2 normamps=400 emergamps=600
new object=line.l_3102_3103 bus1=bus3102.3 bus2=bus3103.3 phases=1 length=134 units=ft linecode=ug_1p_type2 normamps=400 emergamps=600
new object=line.l_3100_3104 bus1=bus3100.3 bus2=bus3104.3 phases=1 length=223 units=ft linecode=ug_1p_type2 normamps=400 emergamps=600
new object=line.l_3104_3105 bus1=bus3104.3 bus2=bus3105.3 phases=1 length=120 units=ft linecode=ug_1p_type2 normamps=400 emergamps=600
new object=line.l_3105_3106 bus1=bus3105.3 bus2=bus3106.3 phases=1 length=181 units=ft linecode=ug_1p_type2 normamps=400 emergamps=600
new object=line.l_3082_3107 bus1=bus3082.1.2.3 bus2=bus3107.1.2.3 phases=3 length=1461 units=ft linecode=ug_3p_type1 normamps=400 emergamps=600
new object=line.l_3107_3108 bus1=bus3107.1 bus2=bus3108.1 phases=1 length=466 units=ft linecode=ug_1p_type2 normamps=400 emergamps=600
new object=line.l_3108_3109 bus1=bus3108.1 bus2=bus3109.1 phases=1 length=136 units=ft linecode=ug_1p_type2 normamps=400 emergamps=600
new object=line.l_3109_3110 bus1=bus3109.1 bus2=bus3110.1 phases=1 length=152 units=ft linecode=ug_1p_type2 normamps=400 emergamps=600
new object=line.l_3110_3111 bus1=bus3110.1 bus2=bus3111.1 phases=1 length=276 units=ft linecode=ug_1p_type2 normamps=400 emergamps=600
new object=line.l_3111_3112 bus1=bus3111.1 bus2=bus3112.1 phases=1 length=328 units=ft linecode=ug_1p_type2 normamps=400 emergamps=600
new object=line.l_3107_3113 bus1=bus3107.2 bus2=bus3113.2 phases=1 length=245 units=ft linecode=ug_1p_type2 normamps=400 emergamps=600
new object=line.l_3113_3114 bus1=bus3113.2 bus2=bus3114.2 phases=1 length=149 units=ft linecode=ug_1p_type2 normamps=400 emergamps=600
new object=line.l_3114_3115 bus1=bus3114.2 bus2=bus3115.2 phases=1 length=331 units=ft linecode=ug_1p_type2 normamps=400 emergamps=600
new object=line.l_3113_3116 bus1=bus3113.2 bus2=bus3116.2 phases=1 length=456 units=ft linecode=ug_1p_type2 normamps=400 emergamps=600
new object=line.l_3116_3117 bus1=bus3116.2 bus2=bus3117.2 phases=1 length=112 units=ft linecode=ug_1p_type2 normamps=400 emergamps=600
new object=line.l_3107_3118 bus1=bus3107.1.2.3 bus2=bus3118.1.2.3 phases=3 length=2267 units=ft linecode=ug_3p_type1 normamps=400 emergamps=600
new object=line.l_3118_3119 bus1=bus3118.2 bus2=bus3119.2 phases=1 length=464 units=ft linecode=ug_1p_type2 normamps=400 emergamps=600
new object=line.l_3119_3120 bus1=bus3119.2 bus2=bus3120.2 phases=1 length=350 units=ft linecode=ug_1p_type2 normamps=400 emergamps=600
new object=line.l_3120_3121 bus1=bus3120.2 bus2=bus3121.2 phases=1 length=206 units=ft linecode=ug_1p_type2 normamps=400 emergamps=600
new object=line.l_3121_3122 bus1=bus3121.2 bus2=bus3122.2 phases=1 length=177 units=ft linecode=ug_1p_type2 normamps=400 emergamps=600
new object=line.l_3119_3123 bus1=bus3119.2 bus2=bus3123.2 phases=1 length=91 units=ft linecode=ug_1p_type2 normamps=400 emergamps=600
new object=line.l_3123_3124 bus1=bus3123.2 bus2=bus3124.2 phases=1 length=67 units=ft linecode=ug_1p_type2 normamps=400 emergamps=600
new object=line.l_3124_3125 bus1=bus3124.2 bus2=bus3125.2 phases=1 length=151 units=ft linecode=ug_1p_type2 normamps=400 emergamps=600
new object=line.l_3125_3126 bus1=bus3125.2 bus2=bus3126.2 phases=1 length=343 units=ft linecode=ug_1p_type2 normamps=400 emergamps=600
new object=line.l_3126_3127 bus1=bus3126.2 bus2=bus3127.2 phases=1 length=234 units=ft linecode=ug_1p_type2 normamps=400 emergamps=600
new object=line.l_3127_3128 bus1=bus3127.2 bus2=bus3128.2 phases=1 length=238 units=ft linecode=ug_1p_type2 normamps=400 emergamps=600
new object=line.l_3128_3129 bus1=bus3128.2 bus2=bus3129.2 phases=1 length=243 units=ft linecode=ug_1p_type2 normamps=400 emergamps=600
...
new object=load.load_1006 bus1=t_bus1006_l.1.2 phases=1 conn=delta kv=0.120 kw=5.04 kvar=2.29629183968801
new object=load.load_1007 bus1=t_bus1007_l.1.2 phases=1 conn=delta kv=0.120 kw=4.163 kvar=2.01623292243998
new object=load.load_1011 bus1=t_bus1011_l.1.2 phases=2 conn=wye kv=0.120 kw=3.125 kvar=1.02713782868395
new object=load.load_1012 bus1=t_bus1012_l.1.2 phases=2 conn=wye kv=0.120 kw=3.083 kvar=1.11897958005877
new object=load.load_1014 bus1=t_bus1014_l.1.2 phases=2 conn=wye kv=0.120 kw=0.458 kvar=0.195107182990382
new object=load.load_1015 bus1=t_bus1015_l.1.2 phases=2 conn=wye kv=0.120 kw=0.793 kvar=0.161025517882765
new object=load.load_1016 bus1=t_bus1016_l.1.2 phases=2 conn=wye kv=0.120 kw=3.083 kvar=1.4931650492151
new object=load.load_1017 bus1=t_bus1017_l.1.2 phases=2 conn=wye kv=0.120 kw=2.131 kvar=0.621541666666667
new object=load.load_2008 bus1=t_bus2008_l.1.2 phases=2 conn=wye kv=0.120 kw=2.067 kvar=0.941753022348238
new object=load.load_2009 bus1=t_bus2009_l.1.2 phases=2 conn=wye kv=0.120 kw=1.246 kvar=0.492450710388461
new object=load.load_2014 bus1=t_bus2014_l.1.2 phases=2 conn=wye kv=0.120 kw=2.816 kvar=0.821333333333334
new object=load.load_2015 bus1=t_bus2015_l.1.2 phases=2 conn=wye kv=0.120 kw=1.49 kvar=0.634737342042945
new object=load.load_2016 bus1=t_bus2016_l.1.2 phases=2 conn=wye kv=0.120 kw=1.64 kvar=0.333016203439767
new object=load.load_2017 bus1=t_bus2017_l.1.2 phases=2 conn=wye kv=0.120 kw=5.125 kvar=2.48215078729399
new object=load.load_2018 bus1=t_bus2018_l.1.2 phases=2 conn=wye kv=0.120 kw=2.809 kvar=0.819291666666667
new object=load.load_2020 bus1=t_bus2020_l.1.2 phases=2 conn=wye kv=0.120 kw=3.086 kvar=1.01431914858197
new object=load.load_2022 bus1=t_bus2022_l.1.2 phases=2 conn=wye kv=0.120 kw=2.728 kvar=1.24291351957716
new object=load.load_2023 bus1=t_bus2023_l.1.2 phases=2 conn=wye kv=0.120 kw=0.728 kvar=0.147826704941555
new object=load.load_2024 bus1=t_bus2024_l.1.2 phases=2 conn=wye kv=0.120 kw=2.549 kvar=0.363212828405741
new object=load.load_2025 bus1=t_bus2025_l.1.2 phases=2 conn=wye kv=0.120 kw=2.701 kvar=1.06750350622731
new object=load.load_2028 bus1=t_bus2028_l.1.2 phases=2 conn=wye kv=0.120 kw=0 kvar=0
new object=load.load_2031 bus1=t_bus2031_l.1.2 phases=2 conn=wye kv=0.120 kw=3.279 kvar=1.58809218176332
new object=load.load_2045 bus1=t_bus2045_l.1.2 phases=2 conn=wye kv=0.120 kw=2.175 kvar=0.545106382968794
new object=load.load_2046 bus1=t_bus2046_l.1.2 phases=2 conn=wye kv=0.120 kw=6.621 kvar=2.82053418903781
new object=load.load_2047 bus1=t_bus2047_l.1.2 phases=2 conn=wye kv=0.120 kw=5.512 kvar=1.38143741743632
new object=load.load_2048 bus1=t_bus2048_l.1.2 phases=2 conn=wye kv=0.120 kw=3.764 kvar=1.71492906440192
new object=load.load_2049 bus1=t_bus2049_l.1.2 phases=2 conn=wye kv=0.120 kw=3.538 kvar=1.28412252813751
new object=load.load_2050 bus1=t_bus2050_l.1.2 phases=2 conn=wye kv=0.120 kw=3.747 kvar=0.533918582987961
new object=load.load_2051 bus1=t_bus2051_l.1.2 phases=2 conn=wye kv=0.120 kw=5.778 kvar=2.46141769283499
new object=load.load_2054 bus1=t_bus2054_l.1.2 phases=2 conn=wye kv=0.120 kw=7.159 kvar=3.46726194853419
new object=load.load_2055 bus1=t_bus2055_l.1.2 phases=2 conn=wye kv=0.120 kw=4.26 kvar=1.2425
new object=load.load_2056 bus1=t_bus2056_l.1.2 phases=2 conn=wye kv=0.120 kw=4.723 kvar=2.01198957481129
new object=load.load_2059 bus1=t_bus2059_l.1.2 phases=2 conn=wye kv=0.120 kw=2.635 kvar=1.27618874624774
new object=load.load_2060 bus1=t_bus2060_l.1.2 phases=2 conn=wye kv=0.120 kw=1.946 kvar=0.639619268678067
new object=load.load_3009 bus1=t_bus3009_l.1.2 phases=2 conn=wye kv=0.120 kw=4.064 kvar=1.606195575
new object=load.load_3010 bus1=t_bus3010_l.1.2 phases=2 conn=wye kv=0.120 kw=4.935 kvar=1.950436802
new object=load.load_3011 bus1=t_bus3011_l.1.2 phases=2 conn=wye kv=0.120 kw=7.419 kvar=2.438507376
new object=load.load_3012 bus1=t_bus3012_l.1.2 phases=2 conn=wye kv=0.120 kw=3.763 kvar=1.365786623
new object=load.load_3013 bus1=t_bus3013_l.1.2 phases=2 conn=wye kv=0.120 kw=2.539 kvar=0.740541667
new object=load.load_3014 bus1=t_bus3014_l.1.2 phases=2 conn=wye kv=0.120 kw=3.105 kvar=1.322724461
new object=load.load_3016 bus1=t_bus3016_l.1.2 phases=2 conn=wye kv=0.120 kw=6.246 kvar=3.025075867
new object=load.load_3017 bus1=t_bus3017_l.1.2 phases=2 conn=wye kv=0.120 kw=8.493 kvar=2.477125
new object=load.load_3018 bus1=t_bus3018_l.1.2 phases=2 conn=wye kv=0.120 kw=5.351 kvar=1.94215366
new object=load.load_3019 bus1=t_bus3019_l.1.2 phases=2 conn=wye kv=0.120 kw=5.403 kvar=1.77588022
new object=load.load_3020 bus1=t_bus3020_l.1.2 phases=2 conn=wye kv=0.120 kw=5.984 kvar=2.726390946
new object=load.load_3021 bus1=t_bus3021_l.1.2 phases=2 conn=wye kv=0.120 kw=7.73 kvar=3.521892048
new object=load.load_3023 bus1=t_bus3023_l.1.2 phases=2 conn=wye kv=0.120 kw=4.344 kvar=0.618986476
new object=load.load_3024 bus1=t_bus3024_l.1.2 phases=2 conn=wye kv=0.120 kw=5.02 kvar=1.984030952
new object=load.load_3025 bus1=t_bus3025_l.1.2 phases=2 conn=wye kv=0.120 kw=6.546 kvar=1.90925
new object=load.load_3026 bus1=t_bus3026_l.1.2 phases=2 conn=wye kv=0.120 kw=10.273 kvar=2.086021621
new object=load.load_3027 bus1=t_bus3027_l.1.2 phases=2 conn=wye kv=0.120 kw=7.116 kvar=1.444965429
new object=load.load_3028 bus1=t_bus3028_l.1.2 phases=2 conn=wye kv=0.120 kw=11.008 kvar=5.33141773
new object=load.load_3029 bus1=t_bus3029_l.1.2 phases=2 conn=wye kv=0.120 kw=2.494 kvar=1.207899329
new object=load.load_3041 bus1=t_bus3041_l.1.2 phases=2 conn=wye kv=0.120 kw=5.252 kvar=1.316275275
new object=load.load_3042 bus1=t_bus3042_l.1.2 phases=2 conn=wye kv=0.120 kw=7.719 kvar=1.09989793
new object=load.load_3043 bus1=t_bus3043_l.1.2 phases=2 conn=wye kv=0.120 kw=6.856 kvar=1.718275569
new object=load.load_3044 bus1=t_bus3044_l.1.2 phases=2 conn=wye kv=0.120 kw=4.119 kvar=1.754686652
new object=load.load_3045 bus1=t_bus3045_l.1.2 phases=2 conn=wye kv=0.120 kw=4.434 kvar=1.11126515
new object=load.load_3056 bus1=t_bus3056_l.1.2 phases=2 conn=wye kv=0.120 kw=3.796 kvar=1.377764024
new object=load.load_3057 bus1=t_bus3057_l.1.2 phases=2 conn=wye kv=0.120 kw=3.679 kvar=1.781821024
new object=load.load_3058 bus1=t_bus3058_l.1.2 phases=2 conn=wye kv=0.120 kw=3.475 kvar=1.142177265
new object=load.load_3059 bus1=t_bus3059_l.1.2 phases=2 conn=wye kv=0.120 kw=4.366 kvar=1.989208367
new object=load.load_3060 bus1=t_bus3060_l.1.2 phases=2 conn=wye kv=0.120 kw=3.63 kvar=1.193123302
new object=load.load_3061 bus1=t_bus3061_l.1.2 phases=2 conn=wye kv=0.120 kw=1.283 kvar=0.374208333
new object=load.load_3062 bus1=t_bus3062_l.1.2 phases=2 conn=wye kv=0.120 kw=0.929 kvar=0.423264905
new object=load.load_3063 bus1=t_bus3063_l.1.2 phases=2 conn=wye kv=0.120 kw=6.523 kvar=2.367532858
new object=load.load_3064 bus1=t_bus3064_l.1.2 phases=2 conn=wye kv=0.120 kw=7.792 kvar=2.272666667
new object=load.load_3065 bus1=t_bus3065_l.1.2 phases=2 conn=wye kv=0.120 kw=2.813 kvar=1.020982666
new object=load.load_3066 bus1=t_bus3066_l.1.2 phases=2 conn=wye kv=0.120 kw=3.257 kvar=1.577437095
new object=load.load_3067 bus1=t_bus3067_l.1.2 phases=2 conn=wye kv=0.120 kw=6.204 kvar=2.039156189
new object=load.load_3083 bus1=t_bus3083_l.1.2 phases=2 conn=wye kv=0.120 kw=3.831 kvar=0.777917729
new object=load.load_3084 bus1=t_bus3084_l.1.2 phases=2 conn=wye kv=0.120 kw=2.25 kvar=0.65625
new object=load.load_3085 bus1=t_bus3085_l.1.2 phases=2 conn=wye kv=0.120 kw=6.765 kvar=1.695468819
new object=load.load_3086 bus1=t_bus3086_l.1.2 phases=2 conn=wye kv=0.120 kw=2.35 kvar=0.92877943
new object=load.load_3087 bus1=t_bus3087_l.1.2 phases=2 conn=wye kv=0.120 kw=4.101 kvar=1.747018684
new object=load.load_3088 bus1=t_bus3088_l.1.2 phases=2 conn=wye kv=0.120 kw=8.41 kvar=1.707723336
new object=load.load_3089 bus1=t_bus3089_l.1.2 phases=2 conn=wye kv=0.120 kw=0.836 kvar=0.303427483
new object=load.load_3090 bus1=t_bus3090_l.1.2 phases=2 conn=wye kv=0.120 kw=3.236 kvar=0.461105027
new object=load.load_3091 bus1=t_bus3091_l.1.2 phases=2 conn=wye kv=0.120 kw=2.536 kvar=0.739666667
new object=load.load_3093 bus1=t_bus3093_l.1.2 phases=2 conn=wye kv=0.120 kw=4.264 kvar=1.942735795
new object=load.load_3094 bus1=t_bus3094_l.1.2 phases=2 conn=wye kv=0.120 kw=3.12 kvar=0.444575922
new object=load.load_3095 bus1=t_bus3095_l.1.2 phases=2 conn=wye kv=0.120 kw=5.901 kvar=2.141777004
new object=load.load_3096 bus1=t_bus3096_l.1.2 phases=2 conn=wye kv=0.120 kw=2.842 kvar=0.934120227
new object=load.load_3097 bus1=t_bus3097_l.1.2 phases=2 conn=wye kv=0.120 kw=11.1 kvar=4.02876203
new object=load.load_3098 bus1=t_bus3098_l.1.2 phases=2 conn=wye kv=0.120 kw=6.461 kvar=2.752374474
new object=load.load_3099 bus1=t_bus3099_l.1.2 phases=2 conn=wye kv=0.120 kw=4.424 kvar=0.630385858
new object=load.load_3101 bus1=t_bus3101_l.1.2 phases=2 conn=wye kv=0.120 kw=2.387 kvar=1.156076864
new object=load.load_3102 bus1=t_bus3102_l.1.2 phases=2 conn=wye kv=0.120 kw=8.2 kvar=2.391666667
new object=load.load_3103 bus1=t_bus3103_l.1.2 phases=2 conn=wye kv=0.120 kw=6.718 kvar=2.655123493
new object=load.load_3104 bus1=t_bus3104_l.1.2 phases=2 conn=wye kv=0.120 kw=8.73 kvar=2.869412238
new object=load.load_3105 bus1=t_bus3105_l.1.2 phases=2 conn=wye kv=0.120 kw=3.052 kvar=0.619735032
new object=load.load_3106 bus1=t_bus3106_l.1.2 phases=2 conn=wye kv=0.120 kw=9.815 kvar=3.879136214
new object=load.load_3108 bus1=t_bus3108_l.1.2 phases=2 conn=wye kv=0.120 kw=2.175 kvar=0.634375
new object=load.load_3109 bus1=t_bus3109_l.1.2 phases=2 conn=wye kv=0.120 kw=13.807 kvar=6.687035301
new object=load.load_3110 bus1=t_bus3110_l.1.2 phases=2 conn=wye kv=0.120 kw=9.577 kvar=1.364648591
new object=load.load_3111 bus1=t_bus3111_l.1.2 phases=2 conn=wye kv=0.120 kw=9.729 kvar=2.837625
new object=load.load_3112 bus1=t_bus3112_l.1.2 phases=2 conn=wye kv=0.120 kw=9.339 kvar=1.330735427
new object=load.load_3114 bus1=t_bus3114_l.1.2 phases=2 conn=wye kv=0.120 kw=5.162 kvar=2.351876682
new object=load.load_3115 bus1=t_bus3115_l.1.2 phases=2 conn=wye kv=0.120 kw=7.794 kvar=1.110584851
new object=load.load_3116 bus1=t_bus3116_l.1.2 phases=2 conn=wye kv=0.120 kw=7.337 kvar=2.139958333
new object=load.load_3117 bus1=t_bus3117_l.1.2 phases=2 conn=wye kv=0.120 kw=3.688 kvar=1.786179923
new object=load.load_3120 bus1=t_bus3120_l.1.2 phases=2 conn=wye kv=0.120 kw=3.209 kvar=0.457257735
new object=load.load_3121 bus1=t_bus3121_l.1.2 phases=2 conn=wye kv=0.120 kw=2.845 kvar=0.713024211
new object=load.load_3122 bus1=t_bus3122_l.1.2 phases=2 conn=wye kv=0.120 kw=4.209 kvar=1.917677054
new object=load.load_3123 bus1=t_bus3123_l.1.2 phases=2 conn=wye kv=0.120 kw=5.077 kvar=2.458903326
new object=load.load_3124 bus1=t_bus3124_l.1.2 phases=2 conn=wye kv=0.120 kw=3.261 kvar=1.579374384
new object=load.load_3125 bus1=t_bus3125_l.1.2 phases=2 conn=wye kv=0.120 kw=0.76 kvar=0.3680848
new object=load.load_3126 bus1=t_bus3126_l.1.2 phases=2 conn=wye kv=0.120 kw=6.249 kvar=2.662062853
new object=load.load_3127 bus1=t_bus3127_l.1.2 phases=2 conn=wye kv=0.120 kw=6.152 kvar=1.24921688
new object=load.load_3128 bus1=t_bus3128_l.1.2 phases=2 conn=wye kv=0.120 kw=3.688 kvar=1.21218698
new object=load.load_3129 bus1=t_bus3129_l.1.2 phases=2 conn=wye kv=0.120 kw=1.967 kvar=0.646521635
new object=load.load_3130 bus1=t_bus3130_l.1.2 phases=2 conn=wye kv=0.120 kw=3.657 kvar=0.742585522
new object=load.load_3131 bus1=t_bus3131_l.1.2 phases=2 conn=wye kv=0.120 kw=3.556 kvar=1.620161465
new object=load.load_3132 bus1=t_bus3132_l.1.2 phases=2 conn=wye kv=0.120 kw=11.56 kvar=4.924539379
new object=load.load_3134 bus1=t_bus3134_l.1.2 phases=2 conn=wye kv=0.120 kw=5.953 kvar=0.848256558
new object=load.load_3135 bus1=t_bus3135_l.1.2 phases=2 conn=wye kv=0.120 kw=7.005 kvar=2.302432157
new object=load.load_3136 bus1=t_bus3136_l.1.2 phases=2 conn=wye kv=0.120 kw=9.443 kvar=4.573453636
new object=load.load_3137 bus1=t_bus3137_l.1.2 phases=2 conn=wye kv=0.120 kw=13.759 kvar=2.793884112
new object=load.load_3138 bus1=t_bus3138_l.1.2 phases=2 conn=wye kv=0.120 kw=8.522 kvar=3.630356798
new object=load.load_3139 bus1=t_bus3139_l.1.2 phases=2 conn=wye kv=0.120 kw=0 kvar=0
new object=load.load_3141 bus1=t_bus3141_l.1.2 phases=2 conn=wye kv=0.120 kw=4.915 kvar=0.998033317
new object=load.load_3142 bus1=t_bus3142_l.1.2 phases=2 conn=wye kv=0.120 kw=4.017 kvar=1.006755099
new object=load.load_3143 bus1=t_bus3143_l.1.2 phases=2 conn=wye kv=0.120 kw=7.716 kvar=2.536126556
new object=load.load_3144 bus1=t_bus3144_l.1.2 phases=2 conn=wye kv=0.120 kw=0.482 kvar=0.219605688
new object=load.load_3145 bus1=t_bus3145_l.1.2 phases=2 conn=wye kv=0.120 kw=1.782 kvar=0.863061991
new object=load.load_3146 bus1=t_bus3146_l.1.2 phases=2 conn=wye kv=0.120 kw=1.616 kvar=0.736271352
new object=load.load_3147 bus1=t_bus3147_l.1.2 phases=2 conn=wye kv=0.120 kw=8.324 kvar=4.031497201
new object=load.load_3148 bus1=t_bus3148_l.1.2 phases=2 conn=wye kv=0.120 kw=9.987 kvar=4.550211628
new object=load.load_3149 bus1=t_bus3149_l.1.2 phases=2 conn=wye kv=0.120 kw=2.029 kvar=0.864350381
new object=load.load_3150 bus1=t_bus3150_l.1.2 phases=2 conn=wye kv=0.120 kw=2.602 kvar=0.652122671
new object=load.load_3151 bus1=t_bus3151_l.1.2 phases=2 conn=wye kv=0.120 kw=1.686 kvar=0.554161401
new object=load.load_3152 bus1=t_bus3152_l.1.2 phases=2 conn=wye kv=0.120 kw=1.934 kvar=0.936678951
new object=load.load_3153 bus1=t_bus3153_l.1.2 phases=2 conn=wye kv=0.120 kw=5.976 kvar=2.894308899
new object=load.load_3154 bus1=t_bus3154_l.1.2 phases=2 conn=wye kv=0.120 kw=4.836 kvar=0.689092679
new object=load.load_3155 bus1=t_bus3155_l.1.2 phases=2 conn=wye kv=0.120 kw=1.477 kvar=0.485466423
new object=load.load_3157 bus1=t_bus3157_l.1.2 phases=2 conn=wye kv=0.120 kw=9.74 kvar=4.149222625
new object=load.load_3158 bus1=t_bus3158_l.1.2 phases=2 conn=wye kv=0.120 kw=6.517 kvar=1.63331416
new object=load.load_3159 bus1=t_bus3159_l.1.2 phases=2 conn=wye kv=0.120 kw=9.776 kvar=4.454077187
new object=load.load_3160 bus1=t_bus3160_l.1.2 phases=2 conn=wye kv=0.120 kw=4.252 kvar=1.397564815
new object=load.load_3161 bus1=t_bus3161_l.1.2 phases=2 conn=wye kv=0.120 kw=2.744 kvar=0.390998824
new object=load.load_3162 bus1=t_bus3162_l.1.2 phases=2 conn=wye kv=0.120 kw=3.75 kvar=0.761469977
new object=load.load_1003 bus1=t_bus1003_l.1.2.3.0 phases=3 conn=wye kv=0.120 kw=15.29 kvar=3.83203521636453
new object=load.load_1004 bus1=t_bus1004_l.1.2.3.0 phases=3 conn=wye kv=0.120 kw=6.892 kvar=3.33794794654248
new object=load.load_1005 bus1=t_bus1005_l.1.2.3.0 phases=3 conn=wye kv=0.120 kw=4.916 kvar=1.94292752188577
new object=load.load_1008 bus1=t_bus1008_l.1.2.3.0 phases=3 conn=wye kv=0.120 kw=14.096 kvar=6.42232733576234
new object=load.load_1009 bus1=t_bus1009_l.1.2.3.0 phases=3 conn=wye kv=0.120 kw=17.081 kvar=6.75084316544566
new object=load.load_1010 bus1=t_bus1010_l.1.2.3.0 phases=3 conn=wye kv=0.120 kw=7.136 kvar=2.82032766399041
new object=load.load_1013 bus1=t_bus1013_l.1.2.3.0 phases=3 conn=wye kv=0.120 kw=1.537 kvar=0.448291666666667
new object=load.load_2002 bus1=t_bus2002_l.1.2.3.0 phases=3 conn=wye kv=0.120 kw=27.94 kvar=10.140865866637
new object=load.load_2003 bus1=t_bus2003_l.1.2.3.0 phases=3 conn=wye kv=0.120 kw=14.286 kvar=3.58040909751365
new object=load.load_2005 bus1=t_bus2005_l.1.2.3.0 phases=3 conn=wye kv=0.120 kw=8.947 kvar=3.5360806627974
new object=load.load_2010 bus1=t_bus2010_l.1.2.3.0 phases=3 conn=wye kv=0.120 kw=2.29 kvar=0.905065912351184
new object=load.load_2011 bus1=t_bus2011_l.1.2.3.0 phases=3 conn=wye kv=0.120 kw=5.368 kvar=1.76437627660014
new object=load.load_2029 bus1=t_bus2029_l.1.2.3.0 phases=3 conn=wye kv=0.120 kw=9.427 kvar=1.91423399379676
new object=load.load_2030 bus1=t_bus2030_l.1.2.3.0 phases=3 conn=wye kv=0.120 kw=5.331 kvar=2.58192114089059
new object=load.load_2032 bus1=t_bus2032_l.1.2.3.0 phases=3 conn=wye kv=0.120 kw=2.217 kvar=1.01009504138657
new object=load.load_2034 bus1=t_bus2034_l.1.2.3.0 phases=3 conn=wye kv=0.120 kw=3.621 kvar=1.75373034161786
new object=load.load_2035 bus1=t_bus2035_l.1.2.3.0 phases=3 conn=wye kv=0.120 kw=3.931 kvar=1.42676248109342
new object=load.load_2037 bus1=t_bus2037_l.1.2.3.0 phases=3 conn=wye kv=0.120 kw=3.941 kvar=1.2953440585099
new object=load.load_2040 bus1=t_bus2040_l.1.2.3.0 phases=3 conn=wye kv=0.120 kw=81.76 kvar=23.8466666666667
new object=load.load_2041 bus1=t_bus2041_l.1.2.3.0 phases=3 conn=wye kv=0.120 kw=1.919 kvar=0.389669569756654
new object=load.load_2042 bus1=t_bus2042_l.1.2.3.0 phases=3 conn=wye kv=0.120 kw=4.223 kvar=2.04529224873025
new object=load.load_2043 bus1=t_bus2043_l.1.2.3.0 phases=3 conn=wye kv=0.120 kw=6.509 kvar=1.63130917091673
new object=load.load_2052 bus1=t_bus2052_l.1.2.3.0 phases=3 conn=wye kv=0.120 kw=40.029 kvar=17.0522825937161
new object=load.load_2053 bus1=t_bus2053_l.1.2.3.0 phases=3 conn=wye kv=0.120 kw=4.28 kvar=1.95002560989379
new object=load.load_2058 bus1=t_bus2058_l.1.2.3.0 phases=3 conn=wye kv=0.120 kw=31.48 kvar=11.425714297843
new object=load.load_3002 bus1=t_bus3002_l.1.2.3.0 phases=3 conn=wye kv=0.120 kw=19.645 kvar=7.13018289
new object=load.load_3004 bus1=t_bus3004_l.1.2.3.0 phases=3 conn=wye kv=0.120 kw=3.117 kvar=1.509632001
new object=load.load_3006 bus1=t_bus3006_l.1.2.3.0 phases=3 conn=wye kv=0.120 kw=4.033 kvar=1.837489085
new object=load.load_3007 bus1=t_bus3007_l.1.2.3.0 phases=3 conn=wye kv=0.120 kw=9.425 kvar=4.564735838
new object=load.load_3031 bus1=t_bus3031_l.1.2.3.0 phases=3 conn=wye kv=0.120 kw=4.271 kvar=0.86726354
new object=load.load_3032 bus1=t_bus3032_l.1.2.3.0 phases=3 conn=wye kv=0.120 kw=5.709 kvar=2.764994897
new object=load.load_3033 bus1=t_bus3033_l.1.2.3.0 phases=3 conn=wye kv=0.120 kw=9.779 kvar=3.549303053
new object=load.load_3034 bus1=t_bus3034_l.1.2.3.0 phases=3 conn=wye kv=0.120 kw=4.776 kvar=0.680543142
new object=load.load_3035 bus1=t_bus3035_l.1.2.3.0 phases=3 conn=wye kv=0.120 kw=10.893 kvar=3.580355958
new object=load.load_3036 bus1=t_bus3036_l.1.2.3.0 phases=3 conn=wye kv=0.120 kw=4.026 kvar=1.17425
new object=load.load_3037 bus1=t_bus3037_l.1.2.3.0 phases=3 conn=wye kv=0.120 kw=7.303 kvar=2.886330287
new object=load.load_3038 bus1=t_bus3038_l.1.2.3.0 phases=3 conn=wye kv=0.120 kw=6.13 kvar=1.787916667
new object=load.load_3039 bus1=t_bus3039_l.1.2.3.0 phases=3 conn=wye kv=0.120 kw=4.966 kvar=1.008389309
new object=load.load_3047 bus1=t_bus3047_l.1.2.3.0 phases=3 conn=wye kv=0.120 kw=10.213 kvar=3.706824019
new object=load.load_3048 bus1=t_bus3048_l.1.2.3.0 phases=3 conn=wye kv=0.120 kw=2.868 kvar=0.408667867
new object=load.load_3049 bus1=t_bus3049_l.1.2.3.0 phases=3 conn=wye kv=0.120 kw=1.671 kvar=0.711843019
new object=load.load_3050 bus1=t_bus3050_l.1.2.3.0 phases=3 conn=wye kv=0.120 kw=2.646 kvar=1.12719128
new object=load.load_3051 bus1=t_bus3051_l.1.2.3.0 phases=3 conn=wye kv=0.120 kw=2.412 kvar=1.098939666
new object=load.load_3052 bus1=t_bus3052_l.1.2.3.0 phases=3 conn=wye kv=0.120 kw=6.101 kvar=2.954849162
new object=load.load_3054 bus1=t_bus3054_l.1.2.3.0 phases=3 conn=wye kv=0.120 kw=2.471 kvar=1.052641592
new object=load.load_3070 bus1=t_bus3070_l.1.2.3.0 phases=3 conn=wye kv=0.120 kw=0.845 kvar=0.120405979
new object=load.load_3071 bus1=t_bus3071_l.1.2.3.0 phases=3 conn=wye kv=0.120 kw=2.163 kvar=0.71094372
new object=load.load_3072 bus1=t_bus3072_l.1.2.3.0 phases=3 conn=wye kv=0.120 kw=1.964 kvar=0.279854843
new object=load.load_3073 bus1=t_bus3073_l.1.2.3.0 phases=3 conn=wye kv=0.120 kw=2.297 kvar=1.046544118
new object=load.load_3074 bus1=t_bus3074_l.1.2.3.0 phases=3 conn=wye kv=0.120 kw=4.791 kvar=2.182844088
new object=load.load_3077 bus1=t_bus3077_l.1.2.3.0 phases=3 conn=wye kv=0.120 kw=41.037 kvar=16.21886019
new object=load.load_3078 bus1=t_bus3078_l.1.2.3.0 phases=3 conn=wye kv=0.120 kw=4.012 kvar=1.827921203
new object=load.load_3081 bus1=t_bus3081_l.1.2.3.0 phases=3 conn=wye kv=0.120 kw=1.581 kvar=0.39623595
new object=transformer.sub_xfmr windings=2 buses=[eq_source_bus.1.2.3,bus_xfmr.1.2.3.0] phases=3 xhl=6.265911 conns=[delta,wye] kvs=[69,13.8] kvas=[10000,10000] taps=[1,1] %rs=[0.6265909,0.6265909]
new object=transformer.sub_regulator_a windings=2 buses=[bus_xfmr.1,bus1.1] phases=1 bank=reg1 xhl=0.01 conns=[wye,wye] kvs=[7.9677,7.9677] kvas=[3500,3500] taps=[1,1.025] %rs=[0.001,0.001] numtaps=32 maxtap=1.1 mintap=0.9
new object=transformer.sub_regulator_b windings=2 buses=[bus_xfmr.2,bus1.2] phases=1 bank=reg1 xhl=0.01 conns=[wye,wye] kvs=[7.9677,7.9677] kvas=[3500,3500] taps=[1,1.025] %rs=[0.001,0.001] numtaps=32 maxtap=1.1 mintap=0.9
new object=transformer.sub_regulator_c windings=2 buses=[bus_xfmr.3,bus1.3] phases=1 bank=reg1 xhl=0.01 conns=[wye,wye] kvs=[7.9677,7.9677] kvas=[3500,3500] taps=[1,1.025] %rs=[0.001,0.001] numtaps=32 maxtap=1.1 mintap=0.9
new object=transformer.t_1003 windings=2 buses=[bus1003.1.2.3.0,t_bus1003_l.1.2.3.0] phases=3 xhl=3.87 conns=[wye,wye] kvs=[13.8,0.208] kvas=[112.5,112.5] taps=[1,1] %rs=[1.215,1.215]
new object=transformer.t_1004 windings=2 buses=[bus1004.1.2.3.0,t_bus1004_l.1.2.3.0] phases=3 xhl=1.91 conns=[wye,wye] kvs=[13.8,0.208] kvas=[75,75] taps=[1,1] %rs=[1.135,1.135]
new object=transformer.t_1005 windings=2 buses=[bus1005.1.2.3.0,t_bus1005_l.1.2.3.0] phases=3 xhl=1.91 conns=[wye,wye] kvs=[13.8,0.208] kvas=[75,75] taps=[1,1] %rs=[1.135,1.135]
new object=transformer.t_1006 windings=2 buses=[bus1006.1.2,t_bus1006_l.1.2] phases=2 xhl=3.7 conns=[delta,delta] kvs=[13.8,0.208] kvas=[75,75] taps=[1,1] %rs=[1.24,1.24]
new object=transformer.t_1007 windings=2 buses=[bus1007.1.2,t_bus1007_l.1.2] phases=2 xhl=2.3 conns=[delta,delta] kvs=[13.8,0.208] kvas=[25,25] taps=[1,1] %rs=[0.7,0.7]
new object=transformer.t_1008 windings=2 buses=[bus1008.1.2.3.0,t_bus1008_l.1.2.3.0] phases=3 xhl=1.73 conns=[wye,wye] kvs=[13.8,0.208] kvas=[45,45] taps=[1,1] %rs=[1.26,1.26]
new object=transformer.t_1009 windings=2 buses=[bus1009.1.2.3.0,t_bus1009_l.1.2.3.0] phases=3 xhl=1.91 conns=[wye,wye] kvs=[13.8,0.208] kvas=[75,75] taps=[1,1] %rs=[1.135,1.135]
new object=transformer.t_1010 windings=2 buses=[bus1010.1.2.3.0,t_bus1010_l.1.2.3.0] phases=3 xhl=1.73 conns=[wye,wye] kvs=[13.8,0.208] kvas=[45,45] taps=[1,1] %rs=[1.26,1.26]
new object=transformer.t_1011 windings=3 buses=[bus1011.1.0,t_bus1011_l.1.0,t_bus1011_l.0.2] phases=1 xhl=2.76 xht=2.76 xlt=1.84 conns=[wye,wye,wye] kvs=[7.9677,0.12,0.12] kvas=[25,25,25] taps=[1,1,1] %rs=[0.7,1.4,1.4]
new object=transformer.t_1012 windings=3 buses=[bus1012.2.0,t_bus1012_l.1.0,t_bus1012_l.0.2] phases=1 xhl=3.24 xht=3.24 xlt=2.16 conns=[wye,wye,wye] kvs=[7.9677,0.12,0.12] kvas=[37.5,37.5,37.5] taps=[1,1,1] %rs=[1.8,3.6,3.6]
new object=transformer.t_1013 windings=2 buses=[bus1013.1.2.3.0,t_bus1013_l.1.2.3.0] phases=3 xhl=1.73 conns=[wye,wye] kvs=[13.8,0.208] kvas=[45,45] taps=[1,1] %rs=[1.26,1.26]
new object=transformer.t_1014 windings=3 buses=[bus1014.2.0,t_bus1014_l.1.0,t_bus1014_l.0.2] phases=1 xhl=2.76 xht=2.76 xlt=1.84 conns=[wye,wye,wye] kvs=[7.9677,0.12,0.12] kvas=[25,25,25] taps=[1,1,1] %rs=[0.7,1.4,1.4]
new object=transformer.t_1015 windings=3 buses=[bus1015.2.0,t_bus1015_l.1.0,t_bus1015_l.0.2] phases=1 xhl=2.76 xht=2.76 xlt=1.84 conns=[wye,wye,wye] kvs=[7.9677,0.12,0.12] kvas=[25,25,25] taps=[1,1,1] %rs=[0.7,1.4,1.4]
new object=transformer.t_1016 windings=3 buses=[bus1016.3.0,t_bus1016_l.1.0,t_bus1016_l.0.2] phases=1 xhl=3.36 xht=3.36 xlt=2.24 conns=[wye,wye,wye] kvs=[7.9677,0.12,0.12] kvas=[50,50,50] taps=[1,1,1] %rs=[1.55,3.1,3.1]
new object=transformer.t_1017 windings=3 buses=[bus1017.3.0,t_bus1017_l.1.0,t_bus1017_l.0.2] phases=1 xhl=3.24 xht=3.24 xlt=2.16 conns=[wye,wye,wye] kvs=[7.9677,0.12,0.12] kvas=[37.5,37.5,37.5] taps=[1,1,1] %rs=[1.8,3.6,3.6]
new object=transformer.t_2002 windings=2 buses=[bus2002.1.2.3,t_bus2002_l.1.2.3] phases=3 xhl=4.5 conns=[wye,wye] kvs=[13.8,0.208] kvas=[300,300] taps=[1,1] %rs=[0.9,0.9]
new object=transformer.t_2003 windings=2 buses=[bus2003.1.2.3.0,t_bus2003_l.1.2.3.0] phases=3 xhl=1.91 conns=[wye,wye] kvs=[13.8,0.208] kvas=[75,75] taps=[1,1] %rs=[1.135,1.135]
new object=transformer.t_2005 windings=2 buses=[bus2005.1.2.3.0,t_bus2005_l.1.2.3.0] phases=3 xhl=1.73 conns=[wye,wye] kvs=[13.8,0.208] kvas=[45,45] taps=[1,1] %rs=[1.26,1.26]
new object=transformer.t_2008 windings=3 buses=[bus2008.1.0,t_bus2008_l.1.0,t_bus2008_l.0.2] phases=1 xhl=2.76 xht=2.76 xlt=1.84 conns=[wye,wye,wye] kvs=[7.9677,0.12,0.12] kvas=[25,25,25] taps=[1,1,1] %rs=[0.7,1.4,1.4]
new object=transformer.t_2009 windings=3 buses=[bus2009.1.0,t_bus2009_l.1.0,t_bus2009_l.0.2] phases=1 xhl=2.76 xht=2.76 xlt=1.84 conns=[wye,wye,wye] kvs=[7.9677,0.12,0.12] kvas=[25,25,25] taps=[1,1,1] %rs=[0.7,1.4,1.4]
new object=transformer.t_2010 windings=2 buses=[bus2010.1.2.3.0,t_bus2010_l.1.2.3.0] phases=3 xhl=1.73 conns=[wye,wye] kvs=[13.8,0.208] kvas=[45,45] taps=[1,1] %rs=[1.26,1.26]
new object=transformer.t_2011 windings=2 buses=[bus2011.1.2.3.0,t_bus2011_l.1.2.3.0] phases=3 xhl=1.73 conns=[wye,wye] kvs=[13.8,0.208] kvas=[45,45] taps=[1,1] %rs=[1.26,1.26]
new object=transformer.t_2014 windings=3 buses=[bus2014.2.0,t_bus2014_l.1.0,t_bus2014_l.0.2] phases=1 xhl=3.24 xht=3.24 xlt=2.16 conns=[wye,wye,wye] kvs=[7.9677,0.12,0.12] kvas=[37.5,37.5,37.5] taps=[1,1,1] %rs=[1.8,3.6,3.6]
new object=transformer.t_2015 windings=3 buses=[bus2015.2.0,t_bus2015_l.1.0,t_bus2015_l.0.2] phases=1 xhl=2.76 xht=2.76 xlt=1.84 conns=[wye,wye,wye] kvs=[7.9677,0.12,0.12] kvas=[25,25,25] taps=[1,1,1] %rs=[0.7,1.4,1.4]
new object=transformer.t_2016 windings=3 buses=[bus2016.2.0,t_bus2016_l.1.0,t_bus2016_l.0.2] phases=1 xhl=2.76 xht=2.76 xlt=1.84 conns=[wye,wye,wye] kvs=[7.9677,0.12,0.12] kvas=[25,25,25] taps=[1,1,1] %rs=[0.7,1.4,1.4]
new object=transformer.t_2017 windings=3 buses=[bus2017.2.0,t_bus2017_l.1.0,t_bus2017_l.0.2] phases=1 xhl=2.76 xht=2.76 xlt=1.84 conns=[wye,wye,wye] kvs=[7.9677,0.12,0.12] kvas=[25,25,25] taps=[1,1,1] %rs=[0.7,1.4,1.4]
new object=transformer.t_2018 windings=3 buses=[bus2018.2.0,t_bus2018_l.1.0,t_bus2018_l.0.2] phases=1 xhl=2.76 xht=2.76 xlt=1.84 conns=[wye,wye,wye] kvs=[7.9677,0.12,0.12] kvas=[25,25,25] taps=[1,1,1] %rs=[0.7,1.4,1.4]
new object=transformer.t_2020 windings=3 buses=[bus2020.2.0,t_bus2020_l.1.0,t_bus2020_l.0.2] phases=1 xhl=2.76 xht=2.76 xlt=1.84 conns=[wye,wye,wye] kvs=[7.9677,0.12,0.12] kvas=[25,25,25] taps=[1,1,1] %rs=[0.7,1.4,1.4]
new object=transformer.t_2022 windings=3 buses=[bus2022.3.0,t_bus2022_l.1.0,t_bus2022_l.0.2] phases=1 xhl=2.76 xht=2.76 xlt=1.84 conns=[wye,wye,wye] kvs=[7.9677,0.12,0.12] kvas=[25,25,25] taps=[1,1,1] %rs=[0.7,1.4,1.4]
new object=transformer.t_2023 windings=3 buses=[bus2023.3.0,t_bus2023_l.1.0,t_bus2023_l.0.2] phases=1 xhl=2.42 xht=2.42 xlt=1.62 conns=[wye,wye,wye] kvs=[7.9677,0.12,0.12] kvas=[15,15,15] taps=[1,1,1] %rs=[0.8,1.6,1.6]
new object=transformer.t_2024 windings=3 buses=[bus2024.3.0,t_bus2024_l.1.0,t_bus2024_l.0.2] phases=1 xhl=2.76 xht=2.76 xlt=1.84 conns=[wye,wye,wye] kvs=[7.9677,0.12,0.12] kvas=[25,25,25] taps=[1,1,1] %rs=[0.7,1.4,1.4]
new object=transformer.t_2025 windings=3 buses=[bus2025.3.0,t_bus2025_l.1.0,t_bus2025_l.0.2] phases=1 xhl=2.76 xht=2.76 xlt=1.84 conns=[wye,wye,wye] kvs=[7.9677,0.12,0.12] kvas=[25,25,25] taps=[1,1,1] %rs=[0.7,1.4,1.4]
new object=transformer.t_2028 windings=3 buses=[bus2028.1.0,t_bus2028_l.1.0,t_bus2028_l.0.2] phases=1 xhl=2.76 xht=2.76 xlt=1.84 conns=[wye,wye,wye] kvs=[7.9677,0.12,0.12] kvas=[25,25,25] taps=[1,1,1] %rs=[0.7,1.4,1.4]
new object=transformer.t_2029 windings=2 buses=[bus2029.1.2.3.0,t_bus2029_l.1.2.3.0] phases=3 xhl=1.91 conns=[wye,wye] kvs=[13.8,0.208] kvas=[75,75] taps=[1,1] %rs=[1.135,1.135]
new object=transformer.t_2030 windings=2 buses=[bus2030.1.2.3.0,t_bus2030_l.1.2.3.0] phases=3 xhl=1.91 conns=[wye,wye] kvs=[13.8,0.208] kvas=[75,75] taps=[1,1] %rs=[1.135,1.135]
...